LAMMPS (17 Apr 2024)
Loaded 1 plugins from /public/home/jxzhu/apps/deepmd/devel/build/deepmd_root/lib/deepmd_lmp
variable        NSTEPS          equal 1000
variable        DT              equal 0.0005
variable        BETA            equal 0.4
variable        KMESH_X         equal 64
variable        KMESH_Y         equal 64
variable        KMESH_Z         equal 64
variable        THERMO_FREQ     equal 100
variable        DUMP_FREQ       equal 100
variable        OUT_DUMP_FREQ   equal 100
variable        TEMP            equal 300.000000
variable        SEED            equal 1

units           metal
boundary        p p p
atom_style      full

read_data       system.data
Reading data file ...
  orthogonal box = (0 0 0) to (24.84 24.84 24.84)
  reading atoms ...
  2048 atoms
  scanning bonds ...
  orthogonal box = (0 0 0) to (24.84 24.84 24.84)
  reading bonds ...
  512 bonds
Finding 1-2 1-3 1-4 neighbors ...
     1 = max # of 1-2 neighbors
     0 = max # of 1-3 neighbors
     0 = max # of 1-4 neighbors
     1 = max # of special neighbors
restart         50000 system.restart

# O H X
mass            1 15.9994
mass            2 1.008
mass            3 1.008

group           real_atom type 1 2
1536 atoms in group real_atom
group           virtual_atom type 3
512 atoms in group virtual_atom

neighbor        2.0 bin
neigh_modify    every 10 delay 0 check no exclude group real_atom virtual_atom

pair_style      deepmd ../graph.pb
Summary of lammps deepmd module ...
  >>> Info of deepmd-kit:
  installed to:       /public/home/jxzhu/apps/deepmd/devel/build/deepmd_root
  source:             v2.2.5-238-gbab92582
  source branch:      r2
  source commit:      bab92582
  source commit at:   2024-11-19 17:38:14 +0800
  support model ver.: 1.1
  build variant:      cuda
  build with tf inc:  /public/home/jxzhu/.conda/envs/deepmd-devel/lib/python3.11/site-packages/tensorflow/include;/public/home/jxzhu/.conda/envs/deepmd-devel/lib/python3.11/site-packages/tensorflow/include
  build with tf lib:  /public/home/jxzhu/.conda/envs/deepmd-devel/lib/python3.11/site-packages/tensorflow/libtensorflow_cc.so.2
  set tf intra_op_parallelism_threads: 0
  set tf inter_op_parallelism_threads: 0
  >>> Info of lammps module:
  use deepmd-kit at:  /public/home/jxzhu/apps/deepmd/devel/build/deepmd_root
  source:             v2.2.5-238-gbab92582
  source branch:      r2
  source commit:      bab92582
  source commit at:   2024-11-19 17:38:14 +0800
  build float prec:   double
  build with tf inc:  /public/home/jxzhu/.conda/envs/deepmd-devel/lib/python3.11/site-packages/tensorflow/include;/public/home/jxzhu/.conda/envs/deepmd-devel/lib/python3.11/site-packages/tensorflow/include
  build with tf lib:  /public/home/jxzhu/.conda/envs/deepmd-devel/lib/python3.11/site-packages/tensorflow/libtensorflow_cc.so.2
pair_coeff      * *
 Deepmd model has only 2 types, it only computes the mulitbody interaction of types: 1-2. (/public/home/jxzhu/apps/deepmd/devel/source/lmp/pair_deepmd.cpp:1282)
 Deepmd model has only 2 types, it only computes the mulitbody interaction of types: 1-2. (/public/home/jxzhu/apps/deepmd/devel/source/lmp/pair_deepmd.cpp:1282)
 Deepmd model has only 2 types, it only computes the mulitbody interaction of types: 1-2. (/public/home/jxzhu/apps/deepmd/devel/source/lmp/pair_deepmd.cpp:1282)

bond_style      zero
bond_coeff      *
special_bonds   lj/coul 1 1 1 angle no
Finding 1-2 1-3 1-4 neighbors ...
     1 = max # of 1-2 neighbors
     1 = max # of special neighbors

kspace_style    pppm/dplr 1e-5
kspace_modify   gewald 0.4 diff ik mesh 64 64 64

velocity        all create 300 1
velocity        all scale 300

compute		real_temp real_atom temp
fix		1 real_atom nvt temp 300 300 $(100*dt)
fix		1 real_atom nvt temp 300 300 0.10000000000000000555
fix_modify	1 temp real_temp

fix             fdplr all dplr model ../graph.pb type_associate 1 3 bond_type 1

thermo 1
timestep        0.0005

run             1000

CITE-CITE-CITE-CITE-CITE-CITE-CITE-CITE-CITE-CITE-CITE-CITE-CITE

Your simulation uses code contributions which should be cited:

- USER-DEEPMD package:

@article{Wang_ComputPhysCommun_2018_v228_p178,
  author = {Wang, Han and Zhang, Linfeng and Han, Jiequn and E, Weinan},
  doi = {10.1016/j.cpc.2018.03.016},
  url = {https://doi.org/10.1016/j.cpc.2018.03.016},
  year = 2018,
  month = {jul},
  publisher = {Elsevier {BV}},
  volume = 228,
  journal = {Comput. Phys. Commun.},
  title = {{DeePMD-kit: A deep learning package for many-body potential energy representation and molecular dynamics}},
  pages = {178--184}
}
@misc{Zeng_JChemPhys_2023_v159_p054801,
  title  = {{DeePMD-kit v2: A software package for deep potential models}},
  author =   {Jinzhe Zeng and Duo Zhang and Denghui Lu and Pinghui Mo and Zeyu Li
         and Yixiao Chen and Mari{\'a}n Rynik and Li'ang Huang and Ziyao Li and
         Shaochen Shi and Yingze Wang and Haotian Ye and Ping Tuo and Jiabin
         Yang and Ye Ding and Yifan Li and Davide Tisi and Qiyu Zeng and Han
         Bao and Yu Xia and Jiameng Huang and Koki Muraoka and Yibo Wang and
         Junhan Chang and Fengbo Yuan and Sigbj{\o}rn L{\o}land Bore and Chun
         Cai and Yinnian Lin and Bo Wang and Jiayan Xu and Jia-Xin Zhu and
         Chenxing Luo and Yuzhi Zhang and Rhys E A Goodall and Wenshuo Liang
         and Anurag Kumar Singh and Sikai Yao and Jingchao Zhang and Renata
         Wentzcovitch and Jiequn Han and Jie Liu and Weile Jia and Darrin M
         York and Weinan E and Roberto Car and Linfeng Zhang and Han Wang},
  journal =  {J. Chem. Phys.},
  volume =   159,
  issue =    5,
  year =    2023,
  pages  =   054801,
  doi =      {10.1063/5.0155600},
}

CITE-CITE-CITE-CITE-CITE-CITE-CITE-CITE-CITE-CITE-CITE-CITE-CITE

PPPM initialization ...
  G vector (1/distance) = 0.4
  grid = 64 64 64
  stencil order = 5
  estimated absolute RMS force accuracy = 0.34534068
  estimated relative force accuracy = 0.023982583
  3d grid and FFT values/proc = 421875 262144
 Deepmd model has only 2 types, it only computes the mulitbody interaction of types: 1-2. (/public/home/jxzhu/apps/deepmd/devel/source/lmp/pair_deepmd.cpp:1320)
 Deepmd model has only 2 types, it only computes the mulitbody interaction of types: 1-2. (/public/home/jxzhu/apps/deepmd/devel/source/lmp/pair_deepmd.cpp:1320)
 Deepmd model has only 2 types, it only computes the mulitbody interaction of types: 1-2. (/public/home/jxzhu/apps/deepmd/devel/source/lmp/pair_deepmd.cpp:1320)
Generated 0 of 3 mixed pair_coeff terms from geometric mixing rule
Step          Temp          E_pair         E_mol          TotEng         Press
0   300           -7477.9535      0             -7398.5748     -15512.225
Averages over the last 501 of 1001 rows, steps 500 to 1000:
Temp E_pair E_mol TotEng Press
239.904 -7507.35 0 -7443.88 6795.2
Loop time of 60.01 on 1 procs for 1000 steps with 2048 atoms
